Version 4
SHEET 1 2168 1300
WIRE 48 64 -16 64
WIRE 208 64 128 64
WIRE 96 160 96 144
WIRE -208 176 -288 176
WIRE -160 176 -208 176
WIRE -16 176 -16 64
WIRE -16 176 -80 176
WIRE 64 176 -16 176
WIRE 208 192 208 64
WIRE 208 192 128 192
WIRE 224 192 208 192
WIRE 272 192 224 192
WIRE 64 208 48 208
WIRE -288 224 -288 176
WIRE -16 240 -112 240
WIRE 96 240 96 224
WIRE -112 288 -112 240
WIRE -16 336 -16 320
WIRE 32 336 -16 336
WIRE 48 336 48 208
WIRE 48 336 32 336
WIRE 192 336 192 320
WIRE 304 336 304 320
WIRE -16 352 -16 336
WIRE 192 432 192 416
WIRE 304 432 304 416
FLAG 304 432 0
FLAG 96 144 +V
FLAG 304 320 +V
FLAG 192 432 0
FLAG 192 320 -V
FLAG 96 240 -V
FLAG -288 304 0
FLAG -208 176 Vin
IOPIN -208 176 In
FLAG -112 368 0
FLAG 224 192 Vamp
IOPIN 224 192 BiDir
FLAG -16 432 0
FLAG 32 336 Vref
IOPIN 32 336 BiDir
SYMBOL voltage 304 320 R0
WINDOW 123 0 0 Left 2
WINDOW 39 0 0 Left 2
SYMATTR InstName V1
SYMATTR Value 15
SYMBOL res -64 160 R90
WINDOW 0 0 56 VBottom 2
WINDOW 3 32 56 VTop 2
SYMATTR InstName R2
SYMATTR Value 6K
SYMBOL res 144 48 R90
WINDOW 0 0 56 VBottom 2
WINDOW 3 32 56 VTop 2
SYMATTR InstName R3
SYMATTR Value 1K
SYMBOL Opamps\\LT1001 96 128 R0
WINDOW 0 27 42 Left 2
WINDOW 3 25 87 Left 2
SYMATTR InstName U1
SYMBOL voltage 192 320 R0
WINDOW 123 0 0 Left 2
WINDOW 39 0 0 Left 2
SYMATTR InstName V5
SYMATTR Value -15
SYMBOL voltage -288 208 R0
WINDOW 123 0 0 Left 0
WINDOW 39 0 0 Left 0
SYMATTR InstName V2
SYMATTR Value SINE(0 10 10)
SYMBOL voltage -112 272 R0
WINDOW 123 0 0 Left 0
WINDOW 39 0 0 Left 0
SYMATTR InstName V3
SYMATTR Value 3.3
SYMBOL res -32 224 R0
SYMATTR InstName R5
SYMATTR Value 133K
SYMBOL res -32 336 R0
SYMATTR InstName R6
SYMATTR Value 100K
TEXT -320 448 Left 2 !.tran .3
TEXT 368 120 Left 2 ;Vref = R3 ( Vinpk-pk / ( 2 ( R3 + R2 ) ) )\nVref = 1K ( 20v / ( 2 ( 1K + 6K ) ) )\nVref = 1.42857v
